TLTK/Dynamic Thay Huy/Vi du minh hoa/Vd 11 - Voltage collapse/New England/new_england_V32.RAW
0,   100.00, 33, 0, 1, 50.00     / PSS(R)E University-33.4    SAT, AUG 02 2014  15:22
NEW ENGLAND TEST SYSTEM, 39 BUSES, 9 GENERATORS
CREATED BY PABLO LEDESMA PABLOLE@ING.UC3M.ES
     1,'1           ', 345.0000,1,   1,   1,   1,1.04967,   1.4951,1.10000,0.90000,1.10000,0.90000
     2,'2           ', 345.0000,1,   1,   1,   1,1.05437,   3.9651,1.10000,0.90000,1.10000,0.90000
     3,'3           ', 345.0000,1,   1,   1,   1,1.04611,   1.1213,1.10000,0.90000,1.10000,0.90000
     4,'4           ', 345.0000,1,   1,   1,   1,1.05176,   0.2706,1.10000,0.90000,1.10000,0.90000
     5,'5           ', 345.0000,1,   1,   1,   1,1.07047,   1.2887,1.10000,0.90000,1.10000,0.90000
     6,'6           ', 345.0000,1,   1,   1,   1,1.07193,   1.9149,1.10000,0.90000,1.10000,0.90000
     7,'7           ', 345.0000,1,   1,   1,   1,1.05865,  -0.0269,1.10000,0.90000,1.10000,0.90000
     8,'8           ', 345.0000,1,   1,   1,   1,1.05602,  -0.4700,1.10000,0.90000,1.10000,0.90000
     9,'9           ', 345.0000,1,   1,   1,   1,1.05296,  -0.2199,1.10000,0.90000,1.10000,0.90000
    10,'10          ', 345.0000,1,   1,   1,   1,1.05660,   4.2106,1.10000,0.90000,1.10000,0.90000
    11,'11          ', 345.0000,1,   1,   1,   1,1.06047,   3.4151,1.10000,0.90000,1.10000,0.90000
    12,'12          ', 345.0000,1,   1,   1,   1,1.04434,   3.4277,1.10000,0.90000,1.10000,0.90000
    13,'13          ', 345.0000,1,   1,   1,   1,1.05276,   3.5604,1.10000,0.90000,1.10000,0.90000
    14,'14          ', 345.0000,1,   1,   1,   1,1.04652,   2.0442,1.10000,0.90000,1.10000,0.90000
    15,'15          ', 345.0000,1,   1,   1,   1,1.01976,   1.8046,1.10000,0.90000,1.10000,0.90000
    16,'16          ', 345.0000,1,   1,   1,   1,1.02284,   3.2973,1.10000,0.90000,1.10000,0.90000
    17,'17          ', 345.0000,1,   1,   1,   1,1.03149,   2.2685,1.10000,0.90000,1.10000,0.90000
    18,'18          ', 345.0000,1,   1,   1,   1,1.03576,   1.4017,1.10000,0.90000,1.10000,0.90000
    19,'19          ', 345.0000,1,   1,   1,   1,1.04655,   7.9516,1.10000,0.90000,1.10000,0.90000
    20,'20          ', 345.0000,1,   1,   1,   1,0.98907,   6.5285,1.10000,0.90000,1.10000,0.90000
    21,'21          ', 345.0000,1,   1,   1,   1,1.02547,   5.7308,1.10000,0.90000,1.10000,0.90000
    22,'22          ', 345.0000,1,   1,   1,   1,1.04643,  10.2120,1.10000,0.90000,1.10000,0.90000
    23,'23          ', 345.0000,1,   1,   1,   1,1.04130,  10.0126,1.10000,0.90000,1.10000,0.90000
    24,'24          ', 345.0000,1,   1,   1,   1,1.02917,   3.4167,1.10000,0.90000,1.10000,0.90000
    25,'25          ', 345.0000,1,   1,   1,   1,1.06006,   5.4296,1.10000,0.90000,1.10000,0.90000
    26,'26          ', 345.0000,1,   1,   1,   1,1.04782,   4.1826,1.10000,0.90000,1.10000,0.90000
    27,'27          ', 345.0000,1,   1,   1,   1,1.03443,   2.1414,1.10000,0.90000,1.10000,0.90000
    28,'28          ', 345.0000,1,   1,   1,   1,1.03967,   7.7689,1.10000,0.90000,1.10000,0.90000
    29,'29          ', 345.0000,1,   1,   1,   1,1.03774,  10.5960,1.10000,0.90000,1.10000,0.90000
    30,'30          ',  22.0000,2,   1,   1,   1,1.04750,   6.3719,1.10000,0.90000,1.10000,0.90000
    31,'31          ',  22.0000,2,   1,   1,   1,1.04000,   8.4480,1.10000,0.90000,1.10000,0.90000
    32,'32          ',  22.0000,2,   1,   1,   1,0.98310,  11.9063,1.10000,0.90000,1.10000,0.90000
    33,'33          ',  22.0000,2,   1,   1,   1,0.99720,  13.1766,1.10000,0.90000,1.10000,0.90000
    34,'34          ',  22.0000,2,   1,   1,   1,1.01230,  11.7231,1.10000,0.90000,1.10000,0.90000
    35,'35          ',  22.0000,2,   1,   1,   1,1.04930,  15.1897,1.10000,0.90000,1.10000,0.90000
    36,'36          ',  22.0000,2,   1,   1,   1,1.06350,  17.8884,1.10000,0.90000,1.10000,0.90000
    37,'37          ',  22.0000,2,   1,   1,   1,1.02780,  12.2016,1.10000,0.90000,1.10000,0.90000
    38,'38          ',  22.0000,2,   1,   1,   1,1.02650,  17.7080,1.10000,0.90000,1.10000,0.90000
    39,'39          ',  22.0000,3,   1,   1,   1,1.03000,   0.0000,1.10000,0.90000,1.10000,0.90000
0 / END OF BUS DATA, BEGIN LOAD DATA
     1,'1 ',1,   1,   1,     0.000,     0.000,     0.000,     0.000,     0.000,     0.000,   1,1,0
     2,'1 ',1,   1,   1,     0.000,     0.000,     0.000,     0.000,     0.000,     0.000,   1,1,0
     3,'1 ',1,   1,   1,   322.000,     2.400,     0.000,     0.000,     0.000,     0.000,   1,1,0
     4,'1 ',1,   1,   1,   500.000,   184.000,     0.000,     0.000,     0.000,     0.000,   1,1,0
     5,'1 ',1,   1,   1,     0.000,     0.000,     0.000,     0.000,     0.000,     0.000,   1,1,0
     6,'1 ',1,   1,   1,     0.000,     0.000,     0.000,     0.000,     0.000,     0.000,   1,1,0
     7,'1 ',1,   1,   1,   233.800,    84.000,     0.000,     0.000,     0.000,     0.000,   1,1,0
     8,'1 ',1,   1,   1,   522.000,   176.000,     0.000,     0.000,     0.000,     0.000,   1,1,0
     9,'1 ',1,   1,   1,     0.000,     0.000,     0.000,     0.000,     0.000,     0.000,   1,1,0
    10,'1 ',1,   1,   1,     0.000,     0.000,     0.000,     0.000,     0.000,     0.000,   1,1,0
    11,'1 ',1,   1,   1,     0.000,     0.000,     0.000,     0.000,     0.000,     0.000,   1,1,0
    12,'1 ',1,   1,   1,     8.500,    88.000,     0.000,     0.000,     0.000,     0.000,   1,1,0
    13,'1 ',1,   1,   1,     0.000,     0.000,     0.000,     0.000,     0.000,     0.000,   1,1,0
    14,'1 ',1,   1,   1,     0.000,     0.000,     0.000,     0.000,     0.000,     0.000,   1,1,0
    15,'1 ',1,   1,   1,   320.000,   153.000,     0.000,     0.000,     0.000,     0.000,   1,1,0
    16,'1 ',1,   1,   1,   329.400,   323.000,     0.000,     0.000,     0.000,     0.000,   1,1,0
    17,'1 ',1,   1,   1,     0.000,     0.000,     0.000,     0.000,     0.000,     0.000,   1,1,0
    18,'1 ',1,   1,   1,   158.000,    30.000,     0.000,     0.000,     0.000,     0.000,   1,1,0
    19,'1 ',1,   1,   1,     0.000,     0.000,     0.000,     0.000,     0.000,     0.000,   1,1,0
    20,'1 ',1,   1,   1,   680.000,   103.000,     0.000,     0.000,     0.000,     0.000,   1,1,0
    21,'1 ',1,   1,   1,   274.000,   115.000,     0.000,     0.000,     0.000,     0.000,   1,1,0
    22,'1 ',1,   1,   1,     0.000,     0.000,     0.000,     0.000,     0.000,     0.000,   1,1,0
    23,'1 ',1,   1,   1,   247.500,    84.600,     0.000,     0.000,     0.000,     0.000,   1,1,0
    24,'1 ',1,   1,   1,   308.600,   -92.200,     0.000,     0.000,     0.000,     0.000,   1,1,0
    25,'1 ',1,   1,   1,   224.000,    47.200,     0.000,     0.000,     0.000,     0.000,   1,1,0
    26,'1 ',1,   1,   1,   139.000,    17.000,     0.000,     0.000,     0.000,     0.000,   1,1,0
    27,'1 ',1,   1,   1,   281.000,    75.500,     0.000,     0.000,     0.000,     0.000,   1,1,0
    28,'1 ',1,   1,   1,   206.000,    27.600,     0.000,     0.000,     0.000,     0.000,   1,1,0
    29,'1 ',1,   1,   1,   283.500,   126.900,     0.000,     0.000,     0.000,     0.000,   1,1,0
    31,'1 ',1,   1,   1,     9.200,     4.600,     0.000,     0.000,     0.000,     0.000,   1,1,0
    39,'1 ',1,   1,   1,  1104.000,   250.000,     0.000,     0.000,     0.000,     0.000,   1,1,0
0 / END OF LOAD DATA, BEGIN FIXED SHUNT DATA
     4,'1 ',1,     0.000,   100.000
     5,'1 ',1,     0.000,   200.000
0 / END OF FIXED SHUNT DATA, BEGIN GENERATOR DATA
    30,'1 ',   250.000,   114.316,   800.000,  -500.000,1.04750,     0,  1000.000, 0.00000E+0, 2.00000E-1, 0.00000E+0, 0.00000E+0,1.00000,1,  100.0,  9999.900,     0.000,   1,1.0000
    31,'1 ',   572.930,   423.326,   800.000,  -500.000,1.04000,     0,  1000.000, 0.00000E+0, 2.00000E-1, 0.00000E+0, 0.00000E+0,1.00000,1,  100.0,  9999.900,     0.000,   1,1.0000
    32,'1 ',   650.000,    22.219,   800.000,  -500.000,0.98310,     0,  1000.000, 0.00000E+0, 2.00000E-1, 0.00000E+0, 0.00000E+0,1.00000,1,  100.0,  9999.900,     0.000,   1,1.0000
    33,'1 ',   632.000,   131.658,   800.000,  -500.000,0.99720,     0,  1000.000, 0.00000E+0, 2.00000E-1, 0.00000E+0, 0.00000E+0,1.00000,1,  100.0,  9999.900,     0.000,   1,1.0000
    34,'1 ',   508.000,   177.515,   400.000,  -300.000,1.01230,     0,  1000.000, 0.00000E+0, 2.00000E-1, 0.00000E+0, 0.00000E+0,1.00000,1,  100.0,  9999.900,     0.000,   1,1.0000
    35,'1 ',   650.000,   236.621,   800.000,  -500.000,1.04930,     0,  1000.000, 0.00000E+0, 2.00000E-1, 0.00000E+0, 0.00000E+0,1.00000,1,  100.0,  9999.900,     0.000,   1,1.0000
    36,'1 ',   560.000,   114.904,   800.000,  -500.000,1.06350,     0,  1000.000, 0.00000E+0, 2.00000E-1, 0.00000E+0, 0.00000E+0,1.00000,1,  100.0,  9999.900,     0.000,   1,1.0000
    37,'1 ',   540.000,   -10.380,   800.000,  -500.000,1.02780,     0,  1000.000, 0.00000E+0, 2.00000E-1, 0.00000E+0, 0.00000E+0,1.00000,1,  100.0,  9999.900,     0.000,   1,1.0000
    38,'1 ',   830.000,   101.282,   800.000,  -500.000,1.02650,     0,  1000.000, 0.00000E+0, 2.00000E-1, 0.00000E+0, 0.00000E+0,1.00000,1,  100.0,  9999.900,     0.000,   1,1.0000
    39,'1 ',  1001.012,   -23.464,  1500.000, -1000.000,1.03000,     0,  1000.000, 0.00000E+0, 2.00000E-2, 0.00000E+0, 0.00000E+0,1.00000,1,  100.0,  9999.900,     0.000,   1,1.0000
0 / END OF GENERATOR DATA, BEGIN BRANCH DATA
     1,     2,'1 ', 3.50000E-3, 4.11000E-2,   0.69870,    0.00,    0.00,    1.00,  0.00000,  0.00000,  0.00000,  0.00000,1,1,   0.00,   1,1.0000
     1,    39,'1 ', 1.00000E-3, 2.50000E-2,   0.75000,    0.00,    0.00,    1.00,  0.00000,  0.00000,  0.00000,  0.00000,1,1,   0.00,   1,1.0000
     2,     3,'1 ', 1.30000E-3, 1.51000E-2,   0.25720,    0.00,    0.00,    1.00,  0.00000,  0.00000,  0.00000,  0.00000,1,1,   0.00,   1,1.0000
     2,    25,'1 ', 7.00000E-3, 8.60000E-3,   0.14600,    0.00,    0.00,    1.00,  0.00000,  0.00000,  0.00000,  0.00000,1,1,   0.00,   1,1.0000
     3,     4,'1 ', 1.30000E-3, 2.13000E-2,   0.22140,    0.00,    0.00,    1.00,  0.00000,  0.00000,  0.00000,  0.00000,1,1,   0.00,   1,1.0000
     3,    18,'1 ', 1.10000E-3, 1.33000E-2,   0.21380,    0.00,    0.00,    1.00,  0.00000,  0.00000,  0.00000,  0.00000,1,1,   0.00,   1,1.0000
     4,     5,'1 ', 8.00000E-4, 1.28000E-2,   0.13420,    0.00,    0.00,    1.00,  0.00000,  0.00000,  0.00000,  0.00000,1,1,   0.00,   1,1.0000
     4,    14,'1 ', 8.00000E-4, 1.29000E-2,   0.13820,    0.00,    0.00,    1.00,  0.00000,  0.00000,  0.00000,  0.00000,1,1,   0.00,   1,1.0000
     5,     6,'1 ', 2.00000E-4, 2.60000E-3,   0.04340,    0.00,    0.00,    1.00,  0.00000,  0.00000,  0.00000,  0.00000,1,2,   0.00,   1,1.0000
     5,     8,'1 ', 8.00000E-4, 1.12000E-2,   0.14760,    0.00,    0.00,    1.00,  0.00000,  0.00000,  0.00000,  0.00000,1,1,   0.00,   1,1.0000
     6,     7,'1 ', 6.00000E-4, 9.20000E-3,   0.11300,    0.00,    0.00,    1.00,  0.00000,  0.00000,  0.00000,  0.00000,1,1,   0.00,   1,1.0000
     6,    11,'1 ', 7.00000E-4, 8.20000E-3,   0.13890,    0.00,    0.00,    1.00,  0.00000,  0.00000,  0.00000,  0.00000,1,1,   0.00,   1,1.0000
     7,     8,'1 ', 4.00000E-4, 4.60000E-3,   0.07800,    0.00,    0.00,    1.00,  0.00000,  0.00000,  0.00000,  0.00000,1,1,   0.00,   1,1.0000
     8,     9,'1 ', 2.30000E-3, 3.63000E-2,   0.38040,    0.00,    0.00,    1.00,  0.00000,  0.00000,  0.00000,  0.00000,1,1,   0.00,   1,1.0000
     9,    39,'1 ', 1.00000E-3, 2.50000E-2,   1.20000,    0.00,    0.00,    1.00,  0.00000,  0.00000,  0.00000,  0.00000,1,1,   0.00,   1,1.0000
    10,    11,'1 ', 4.00000E-4, 4.30000E-3,   0.07290,    0.00,    0.00,    1.00,  0.00000,  0.00000,  0.00000,  0.00000,1,1,   0.00,   1,1.0000
    10,    13,'1 ', 4.00000E-4, 4.30000E-3,   0.07290,    0.00,    0.00,    1.00,  0.00000,  0.00000,  0.00000,  0.00000,1,1,   0.00,   1,1.0000
    13,    14,'1 ', 9.00000E-4, 1.01000E-2,   0.17230,    0.00,    0.00,    1.00,  0.00000,  0.00000,  0.00000,  0.00000,1,1,   0.00,   1,1.0000
    14,    15,'1 ', 1.80000E-3, 2.17000E-2,   0.36600,    0.00,    0.00,    1.00,  0.00000,  0.00000,  0.00000,  0.00000,1,1,   0.00,   1,1.0000
    15,    16,'1 ', 9.00000E-4, 9.40000E-3,   0.17100,    0.00,    0.00,    1.00,  0.00000,  0.00000,  0.00000,  0.00000,1,1,   0.00,   1,1.0000
    16,    17,'1 ', 7.00000E-4, 8.90000E-3,   0.13420,    0.00,    0.00,    1.00,  0.00000,  0.00000,  0.00000,  0.00000,1,1,   0.00,   1,1.0000
    16,    19,'1 ', 1.60000E-3, 1.95000E-2,   0.30400,    0.00,    0.00,    1.00,  0.00000,  0.00000,  0.00000,  0.00000,1,1,   0.00,   1,1.0000
    16,    21,'1 ', 8.00000E-4, 1.35000E-2,   0.25480,    0.00,    0.00,    1.00,  0.00000,  0.00000,  0.00000,  0.00000,1,1,   0.00,   1,1.0000
    16,    24,'1 ', 3.00000E-4, 5.90000E-3,   0.06800,    0.00,    0.00,    1.00,  0.00000,  0.00000,  0.00000,  0.00000,1,1,   0.00,   1,1.0000
    17,    18,'1 ', 7.00000E-4, 8.20000E-3,   0.13190,    0.00,    0.00,    1.00,  0.00000,  0.00000,  0.00000,  0.00000,1,1,   0.00,   1,1.0000
    17,    27,'1 ', 1.30000E-3, 1.73000E-2,   0.32160,    0.00,    0.00,    1.00,  0.00000,  0.00000,  0.00000,  0.00000,1,1,   0.00,   1,1.0000
    21,    22,'1 ', 8.00000E-4, 1.40000E-2,   0.25650,    0.00,    0.00,    1.00,  0.00000,  0.00000,  0.00000,  0.00000,1,1,   0.00,   1,1.0000
    22,    23,'1 ', 6.00000E-4, 9.60000E-3,   0.18460,    0.00,    0.00,    1.00,  0.00000,  0.00000,  0.00000,  0.00000,1,1,   0.00,   1,1.0000
    23,    24,'1 ', 2.20000E-3, 3.50000E-2,   0.36100,    0.00,    0.00,    1.00,  0.00000,  0.00000,  0.00000,  0.00000,1,1,   0.00,   1,1.0000
    25,    26,'1 ', 3.20000E-3, 3.23000E-2,   0.51300,    0.00,    0.00,    1.00,  0.00000,  0.00000,  0.00000,  0.00000,1,1,   0.00,   1,1.0000
    26,    27,'1 ', 1.40000E-3, 1.47000E-2,   0.23960,    0.00,    0.00,    1.00,  0.00000,  0.00000,  0.00000,  0.00000,1,1,   0.00,   1,1.0000
    26,    28,'1 ', 4.30000E-3, 4.74000E-2,   0.78020,    0.00,    0.00,    1.00,  0.00000,  0.00000,  0.00000,  0.00000,1,1,   0.00,   1,1.0000
    26,    29,'1 ', 5.70000E-3, 6.25000E-2,   1.02900,    0.00,    0.00,    1.00,  0.00000,  0.00000,  0.00000,  0.00000,1,1,   0.00,   1,1.0000
    28,    29,'1 ', 1.40000E-3, 1.51000E-2,   0.24900,    0.00,    0.00,    1.00,  0.00000,  0.00000,  0.00000,  0.00000,1,1,   0.00,   1,1.0000
0 / END OF BRANCH DATA, BEGIN TRANSFORMER DATA
     2,    30,     0,'1 ',1,1,1, 0.00000E+0, 0.00000E+0,2,'            ',1,   1,1.0000,   0,1.0000,   0,1.0000,   0,1.0000,'            '
 0.00000E+0, 1.81000E-2,   100.00
1.02500,   0.000,   0.000,     0.00,     0.00,     0.00, 0,      0, 1.20000, 0.80000, 1.20000, 0.80000,   8, 0, 0.00000, 0.00000,  0.000
1.00000,   0.000
    31,     6,     0,'1 ',1,1,1, 0.00000E+0, 0.00000E+0,2,'            ',1,   1,1.0000,   0,1.0000,   0,1.0000,   0,1.0000,'            '
 0.00000E+0, 2.50000E-2,   100.00
0.90000,   0.000,   0.000,     0.00,     0.00,     0.00,-1,      6, 1.20000, 0.80000, 1.17000, 0.98000,   8, 0, 0.00000, 0.00000,  0.000
1.00000,   0.000
    10,    32,     0,'1 ',1,1,1, 0.00000E+0, 0.00000E+0,2,'            ',1,   1,1.0000,   0,1.0000,   0,1.0000,   0,1.0000,'            '
 0.00000E+0, 2.00000E-2,   100.00
1.07000,   0.000,   0.000,     0.00,     0.00,     0.00, 0,      0, 1.20000, 0.80000, 1.20000, 0.80000,   8, 0, 0.00000, 0.00000,  0.000
1.00000,   0.000
    12,    11,     0,'1 ',1,1,1, 0.00000E+0, 0.00000E+0,2,'            ',1,   1,1.0000,   0,1.0000,   0,1.0000,   0,1.0000,'            '
 1.60000E-3, 4.35000E-2,   100.00
1.00600,   0.000,   0.000,     0.00,     0.00,     0.00, 0,      0, 1.20000, 0.80000, 1.20000, 0.80000,   8, 0, 0.00000, 0.00000,  0.000
1.00000,   0.000
    12,    13,     0,'1 ',1,1,1, 0.00000E+0, 0.00000E+0,2,'            ',1,   1,1.0000,   0,1.0000,   0,1.0000,   0,1.0000,'            '
 1.60000E-3, 4.35000E-2,   100.00
1.00600,   0.000,   0.000,     0.00,     0.00,     0.00, 0,      0, 1.20000, 0.80000, 1.20000, 0.80000,   8, 0, 0.00000, 0.00000,  0.000
1.00000,   0.000
    19,    20,     0,'1 ',1,1,1, 0.00000E+0, 0.00000E+0,2,'            ',1,   1,1.0000,   0,1.0000,   0,1.0000,   0,1.0000,'            '
 7.00000E-4, 1.38000E-2,   100.00
1.06000,   0.000,   0.000,     0.00,     0.00,     0.00, 0,      0, 1.20000, 0.80000, 1.20000, 0.80000,   8, 0, 0.00000, 0.00000,  0.000
1.00000,   0.000
    19,    33,     0,'1 ',1,1,1, 0.00000E+0, 0.00000E+0,2,'            ',1,   1,1.0000,   0,1.0000,   0,1.0000,   0,1.0000,'            '
 7.00000E-4, 1.42000E-2,   100.00
1.07000,   0.000,   0.000,     0.00,     0.00,     0.00, 0,      0, 1.20000, 0.80000, 1.20000, 0.80000,   8, 0, 0.00000, 0.00000,  0.000
1.00000,   0.000
    20,    34,     0,'1 ',1,1,1, 0.00000E+0, 0.00000E+0,2,'            ',1,   1,1.0000,   0,1.0000,   0,1.0000,   0,1.0000,'            '
 9.00000E-4, 1.80000E-2,   100.00
1.00900,   0.000,   0.000,     0.00,     0.00,     0.00, 0,      0, 1.20000, 0.80000, 1.20000, 0.80000,   8, 0, 0.00000, 0.00000,  0.000
1.00000,   0.000
    22,    35,     0,'1 ',1,1,1, 0.00000E+0, 0.00000E+0,2,'            ',1,   1,1.0000,   0,1.0000,   0,1.0000,   0,1.0000,'            '
 0.00000E+0, 1.43000E-2,   100.00
1.02500,   0.000,   0.000,     0.00,     0.00,     0.00, 0,      0, 1.20000, 0.80000, 1.20000, 0.80000,   8, 0, 0.00000, 0.00000,  0.000
1.00000,   0.000
    23,    36,     0,'1 ',1,1,1, 0.00000E+0, 0.00000E+0,2,'            ',1,   1,1.0000,   0,1.0000,   0,1.0000,   0,1.0000,'            '
 5.00000E-4, 2.72000E-2,   100.00
1.00000,   0.000,   0.000,     0.00,     0.00,     0.00, 0,      0, 1.20000, 0.80000, 1.20000, 0.80000,   8, 0, 0.00000, 0.00000,  0.000
1.00000,   0.000
    25,    37,     0,'1 ',1,1,1, 0.00000E+0, 0.00000E+0,2,'            ',1,   1,1.0000,   0,1.0000,   0,1.0000,   0,1.0000,'            '
 6.00000E-4, 2.32000E-2,   100.00
1.02500,   0.000,   0.000,     0.00,     0.00,     0.00, 0,      0, 1.20000, 0.80000, 1.20000, 0.80000,   8, 0, 0.00000, 0.00000,  0.000
1.00000,   0.000
    29,    38,     0,'1 ',1,1,1, 0.00000E+0, 0.00000E+0,2,'            ',1,   1,1.0000,   0,1.0000,   0,1.0000,   0,1.0000,'            '
 8.00000E-4, 1.56000E-2,   100.00
1.02500,   0.000,   0.000,     0.00,     0.00,     0.00, 0,      0, 1.20000, 0.80000, 1.20000, 0.80000,   8, 0, 0.00000, 0.00000,  0.000
1.00000,   0.000
0 / END OF TRANSFORMER DATA, BEGIN AREA DATA
   1,     0,     0.000,     1.000,'1           '
0 / END OF AREA DATA, BEGIN TWO-TERMINAL DC DATA
0 / END OF TWO-TERMINAL DC DATA, BEGIN VSC DC LINE DATA
0 / END OF VSC DC LINE DATA, BEGIN IMPEDANCE CORRECTION DATA
0 / END OF IMPEDANCE CORRECTION DATA, BEGIN MULTI-TERMINAL DC DATA
0 / END OF MULTI-TERMINAL DC DATA, BEGIN MULTI-SECTION LINE DATA
0 / END OF MULTI-SECTION LINE DATA, BEGIN ZONE DATA
   1,'1           '
0 / END OF ZONE DATA, BEGIN INTER-AREA TRANSFER DATA
0 / END OF INTER-AREA TRANSFER DATA, BEGIN OWNER DATA
   1,'1           '
0 / END OF OWNER DATA, BEGIN FACTS DEVICE DATA
0 / END OF FACTS DEVICE DATA, BEGIN SWITCHED SHUNT DATA
0 / END OF SWITCHED SHUNT DATA, BEGIN GNE DATA
0 / END OF GNE DATA, BEGIN INDUCTION MACHINE DATA
0 / END OF INDUCTION MACHINE DATA
Q
